matpower-plain/case28da.m
function mpc = case28da
%CASE28DA Power flow data for 28 bus distribution system from Das, et al
%   Please see CASEFORMAT for details on the case file format.
%
%   Data from ...
%       D. Das, H.S. Nagi, D.P. Kothari, "Novel method for solving radial
%       distribution networks", IEE Proc. C, Vol. 141, No. 4, pp. 291-298,
%       1994.
%
%   Plain-data copy of benchmark-grids/matpower/case28da.m: the file's
%   MATLAB statements (below, as they were) are evaluated by
%   scripts/evaluate_matpower_code.py and the matrices hold the result.
%     Vbase = mpc.bus(1, BASE_KV) * 1e3;
%     Sbase = mpc.baseMVA * 1e6;
%     mpc.branch(:, [BR_R BR_X]) = mpc.branch(:, [BR_R BR_X]) / (Vbase^2 / Sbase);
%     mpc.bus(:, [PD, QD]) = mpc.bus(:, [PD, QD]) / 1e3;

%% MATPOWER Case Format : Version 2
mpc.version = '2';

mpc.baseMVA = 1;

mpc.bus = [
	1	3	0	0	0	0	1	1	0	11	1	1	1;
	2	1	0.03528	0.035993000000000004	0	0	1	1	0	11	1	1	1;
	3	1	0.014	0.014283	0	0	1	1	0	11	1	1	1;
	4	1	0.03528	0.035993000000000004	0	0	1	1	0	11	1	1	1;
	5	1	0.014	0.014283	0	0	1	1	0	11	1	1	1;
	6	1	0.03528	0.035993000000000004	0	0	1	1	0	11	1	1	1;
	7	1	0.03528	0.035993000000000004	0	0	1	1	0	11	1	1	1;
	8	1	0.03528	0.035993000000000004	0	0	1	1	0	11	1	1	1;
	9	1	0.014	0.014283	0	0	1	1	0	11	1	1	1;
	10	1	0.014	0.014283	0	0	1	1	0	11	1	1	1;
	11	1	0.056	0.057131	0	0	1	1	0	11	1	1	1;
	12	1	0.03528	0.035993000000000004	0	0	1	1	0	11	1	1	1;
	13	1	0.03528	0.035993000000000004	0	0	1	1	0	11	1	1	1;
	14	1	0.014	0.014283	0	0	1	1	0	11	1	1	1;
	15	1	0.03528	0.035993000000000004	0	0	1	1	0	11	1	1	1;
	16	1	0.03528	0.035993000000000004	0	0	1	1	0	11	1	1	1;
	17	1	0.008960000000000001	0.009141	0	0	1	1	0	11	1	1	1;
	18	1	0.008960000000000001	0.009141	0	0	1	1	0	11	1	1	1;
	19	1	0.03528	0.035993000000000004	0	0	1	1	0	11	1	1	1;
	20	1	0.03528	0.035993000000000004	0	0	1	1	0	11	1	1	1;
	21	1	0.014	0.014283	0	0	1	1	0	11	1	1	1;
	22	1	0.03528	0.035993000000000004	0	0	1	1	0	11	1	1	1;
	23	1	0.008960000000000001	0.009141	0	0	1	1	0	11	1	1	1;
	24	1	0.056	0.057131	0	0	1	1	0	11	1	1	1;
	25	1	0.008960000000000001	0.009141	0	0	1	1	0	11	1	1	1;
	26	1	0.03528	0.035993000000000004	0	0	1	1	0	11	1	1	1;
	27	1	0.03528	0.035993000000000004	0	0	1	1	0	11	1	1	1;
	28	1	0.03528	0.035993000000000004	0	0	1	1	0	11	1	1	1;
];

mpc.gen = [
	1	0	0	10	-10	1	100	1	10	0	0	0	0	0	0	0	0	0	0	0	0;
];

mpc.branch = [
	1	2	0.009892561983471075	0.006776859504132231	0	0	0	0	0	0	1	-360	360;
	2	3	0.014842975206611571	0.010173553719008266	0	0	0	0	0	0	1	-360	360;
	3	4	0.010793388429752067	0.007396694214876033	0	0	0	0	0	0	1	-360	360;
	4	5	0.015297520661157025	0.010479338842975206	0	0	0	0	0	0	1	-360	360;
	5	6	0.01259504132231405	0.00862809917355372	0	0	0	0	0	0	1	-360	360;
	6	7	0.01574380165289256	0.010785123966942149	0	0	0	0	0	0	1	-360	360;
	7	8	0.009892561983471075	0.006776859504132231	0	0	0	0	0	0	1	-360	360;
	8	9	0.005396694214876033	0.003694214876033058	0	0	0	0	0	0	1	-360	360;
	9	10	0.009446280991735537	0.006471074380165289	0	0	0	0	0	0	1	-360	360;
	4	11	0.023330578512396696	0.00968595041322314	0	0	0	0	0	0	1	-360	360;
	11	12	0.00978512396694215	0.004057851239669422	0	0	0	0	0	0	1	-360	360;
	12	13	0.00828099173553719	0.00343801652892562	0	0	0	0	0	0	1	-360	360;
	13	14	0.003760330578512397	0.0015619834710743803	0	0	0	0	0	0	1	-360	360;
	14	15	0.004512396694214877	0.0018760330578512397	0	0	0	0	0	0	1	-360	360;
	5	16	0.021074380165289255	0.008743801652892562	0	0	0	0	0	0	1	-360	360;
	6	17	0.011289256198347109	0.00468595041322314	0	0	0	0	0	0	1	-360	360;
	17	18	0.006768595041322314	0.002809917355371901	0	0	0	0	0	0	1	-360	360;
	18	19	0.012793388429752067	0.005305785123966942	0	0	0	0	0	0	1	-360	360;
	19	20	0.011289256198347109	0.00468595041322314	0	0	0	0	0	0	1	-360	360;
	20	21	0.029355371900826446	0.012181818181818183	0	0	0	0	0	0	1	-360	360;
	7	22	0.012793388429752067	0.005305785123966942	0	0	0	0	0	0	1	-360	360;
	22	23	0.009024793388429753	0.0037438016528925622	0	0	0	0	0	0	1	-360	360;
	23	24	0.007520661157024794	0.0031239669421487606	0	0	0	0	0	0	1	-360	360;
	24	25	0.003760330578512397	0.0015619834710743803	0	0	0	0	0	0	1	-360	360;
	25	26	0.003008264462809917	0.0012479338842975207	0	0	0	0	0	0	1	-360	360;
	8	27	0.004512396694214877	0.0018677685950413223	0	0	0	0	0	0	1	-360	360;
	27	28	0.0022561983471074383	0.0009338842975206612	0	0	0	0	0	0	1	-360	360;
];

mpc.gencost = [
	2	0	0	3	0	20	0;
];
